Version 4.1
SHEET 1 2504 1232
WIRE 784 -16 640 -16
WIRE -224 128 -336 128
WIRE -48 128 -144 128
WIRE -336 192 -336 128
WIRE -48 192 -48 128
WIRE 32 192 -48 192
WIRE 784 208 784 -16
WIRE 32 272 -48 272
WIRE -336 336 -336 272
WIRE -240 336 -336 336
WIRE -48 336 -48 272
WIRE -48 336 -144 336
WIRE -192 384 -192 368
WIRE 112 464 96 464
WIRE 368 464 352 464
WIRE 784 512 784 288
WIRE 784 512 640 512
WIRE 784 544 784 512
WIRE 240 736 176 736
WIRE 400 736 304 736
WIRE 512 736 480 736
WIRE 800 736 736 736
WIRE 960 736 864 736
WIRE 1072 736 1040 736
WIRE -240 784 -272 784
WIRE -96 784 -128 784
WIRE 176 784 176 736
WIRE 176 784 144 784
WIRE 512 784 512 736
WIRE 544 784 512 784
WIRE 736 784 736 736
WIRE 736 784 704 784
WIRE 1072 784 1072 736
WIRE 1104 784 1072 784
WIRE -240 816 -272 816
WIRE -96 816 -128 816
WIRE 176 832 176 784
WIRE 240 832 176 832
WIRE 400 832 304 832
WIRE 512 832 512 784
WIRE 512 832 480 832
WIRE 736 832 736 784
WIRE 800 832 736 832
WIRE 960 832 864 832
WIRE 1072 832 1072 784
WIRE 1072 832 1040 832
WIRE -240 848 -272 848
WIRE -96 848 -128 848
WIRE -240 880 -272 880
WIRE -96 880 -128 880
WIRE -240 928 -272 928
WIRE 240 928 176 928
WIRE 400 928 304 928
WIRE 512 928 480 928
WIRE 800 928 736 928
WIRE 960 928 864 928
WIRE 1072 928 1040 928
WIRE 176 976 176 928
WIRE 176 976 144 976
WIRE 512 976 512 928
WIRE 544 976 512 976
WIRE 736 976 736 928
WIRE 736 976 704 976
WIRE 1072 976 1072 928
WIRE 1104 976 1072 976
WIRE 176 1024 176 976
WIRE 240 1024 176 1024
WIRE 400 1024 304 1024
WIRE 512 1024 512 976
WIRE 512 1024 480 1024
WIRE 736 1024 736 976
WIRE 800 1024 736 1024
WIRE 960 1024 864 1024
WIRE 1072 1024 1072 976
WIRE 1072 1024 1040 1024
FLAG 784 544 0
FLAG 784 -16 OUT
FLAG 112 128 Q1_S
FLAG 368 128 Q3_S
FLAG -96 784 Q1_G
FLAG -96 816 Q1_S
FLAG -96 848 Q2_G
FLAG -96 880 0
FLAG -272 784 Q3_G
FLAG -272 816 Q3_S
FLAG -272 848 Q4_G
FLAG -272 880 0
FLAG -272 928 U2
FLAG -192 384 U2
FLAG 144 784 Q1_G
FLAG 144 976 Q2_G
FLAG 544 784 U3_G
FLAG 544 976 U4_G
FLAG 704 784 Q3_G
FLAG 704 976 Q4_G
FLAG 1104 784 U5_G
FLAG 1104 976 U6_G
FLAG 112 96 U3_G
FLAG 112 432 U4_G
FLAG 368 96 U5_G
FLAG 368 432 U6_G
FLAG 352 464 0
FLAG 96 464 0
FLAG -48 128 IN
FLAG -336 128 AC_IN
SYMBOL ind -240 144 R270
WINDOW 0 32 56 VTop 2
WINDOW 3 5 56 VBottom 2
SYMATTR InstName L1
SYMATTR Value 100µ
SYMBOL voltage -336 176 M0
WINDOW 123 0 0 Left 2
WINDOW 39 0 0 Left 2
WINDOW 3 49 -79 VRight 2
WINDOW 0 -38 13 Left 2
SYMATTR Value SINE(0 {{Vin}*2**0.5} {fps})
SYMATTR InstName V1
SYMBOL voltage 784 192 M0
WINDOW 123 0 0 Left 2
WINDOW 39 0 0 Left 2
WINDOW 0 13 12 Left 2
WINDOW 3 6 98 Left 2
SYMATTR InstName V2
SYMATTR Value {Vo}
SYMBOL I-V -208 336 M0
WINDOW 0 -17 -42 Bottom 2
WINDOW 3 -18 -47 Top 1
WINDOW 39 -61 -25 Left 1
SYMATTR InstName U2
SYMBOL schottky 304 720 R90
WINDOW 0 0 32 VBottom 2
WINDOW 3 32 32 VTop 2
SYMATTR InstName D1
SYMATTR Value RB160MM-40
SYMATTR Description Diode
SYMATTR Type diode
SYMBOL schottky 304 912 R90
WINDOW 0 0 32 VBottom 2
WINDOW 3 32 32 VTop 2
SYMATTR InstName D2
SYMATTR Value RB160MM-40
SYMATTR Description Diode
SYMATTR Type diode
SYMBOL schottky 864 720 R90
WINDOW 0 0 32 VBottom 2
WINDOW 3 32 32 VTop 2
SYMATTR InstName D3
SYMATTR Value RB160MM-40
SYMATTR Description Diode
SYMATTR Type diode
SYMBOL schottky 864 912 R90
WINDOW 0 0 32 VBottom 2
WINDOW 3 32 32 VTop 2
SYMATTR InstName D4
SYMATTR Value RB160MM-40
SYMATTR Description Diode
SYMATTR Type diode
SYMBOL res 496 720 R90
WINDOW 0 0 56 VBottom 2
WINDOW 3 32 56 VTop 2
SYMATTR InstName R3
SYMATTR Value {Rg_off}
SYMBOL res 496 816 R90
WINDOW 0 0 56 VBottom 2
WINDOW 3 32 56 VTop 2
SYMATTR InstName R4
SYMATTR Value {Rg_on}
SYMBOL res 496 912 R90
WINDOW 0 0 56 VBottom 2
WINDOW 3 32 56 VTop 2
SYMATTR InstName R5
SYMATTR Value {Rg_off}
SYMBOL res 496 1008 R90
WINDOW 0 0 56 VBottom 2
WINDOW 3 32 56 VTop 2
SYMATTR InstName R6
SYMATTR Value {Rg_on}
SYMBOL res 1056 720 R90
WINDOW 0 0 56 VBottom 2
WINDOW 3 32 56 VTop 2
SYMATTR InstName R7
SYMATTR Value {Rg_off}
SYMBOL res 1056 816 R90
WINDOW 0 0 56 VBottom 2
WINDOW 3 32 56 VTop 2
SYMATTR InstName R8
SYMATTR Value {Rg_on}
SYMBOL res 1056 912 R90
WINDOW 0 0 56 VBottom 2
WINDOW 3 32 56 VTop 2
SYMATTR InstName R9
SYMATTR Value {Rg_off}
SYMBOL res 1056 1008 R90
WINDOW 0 0 56 VBottom 2
WINDOW 3 32 56 VTop 2
SYMATTR InstName R10
SYMATTR Value {Rg_on}
SYMBOL schottky 240 848 R270
WINDOW 0 32 32 VTop 2
WINDOW 3 0 32 VBottom 2
SYMATTR InstName D5
SYMATTR Value RB160MM-40
SYMATTR Description Diode
SYMATTR Type diode
SYMBOL schottky 240 1040 R270
WINDOW 0 32 32 VTop 2
WINDOW 3 0 32 VBottom 2
SYMATTR InstName D6
SYMATTR Value RB160MM-40
SYMATTR Description Diode
SYMATTR Type diode
SYMBOL schottky 800 848 R270
WINDOW 0 32 32 VTop 2
WINDOW 3 0 32 VBottom 2
SYMATTR InstName D7
SYMATTR Value RB160MM-40
SYMATTR Description Diode
SYMATTR Type diode
SYMBOL schottky 800 1040 R270
WINDOW 0 32 32 VTop 2
WINDOW 3 0 32 VBottom 2
SYMATTR InstName D8
SYMATTR Value RB160MM-40
SYMATTR Description Diode
SYMATTR Type diode
SYMBOL PWM-PFC-DBL-LHC -192 912 R0
WINDOW 39 -367 56 Invisible 2
WINDOW 40 -368 90 Invisible 2
SYMATTR SpiceLine fps={fps} fsw={fsw} phase=0 td1=200n td2=200n tr1=10n tf1=10n tr2=10n tf2=10n
SYMATTR SpiceLine2 Vg_H={Vg_H} Vg_L={Vg_L} Rso1=0 Rsi1=0 Rso2=0 Rsi2=0 f02=5k GA=5k Vref=0.5
SYMATTR InstName U1
SYMBOL BST91B1P4K01-VC_L3 128 240 R0
SYMATTR InstName U3
TEXT 992 32 Left 2 !.tran 0 20m 0
TEXT 992 80 Left 2 !.param \n+Vin=200\n+Vo=400 \n+fps=50\n+Iin=100\n+fsw=50k \n+phase=0\n+Vg_H=18\n+Vg_L=0\n+Rg_on=2\n+Rg_off=1
TEXT 992 56 Left 2 !.temp 100
TEXT 992 -32 Left 2 ;Vin=200Vac  Iin=100Aac  Vo=400Vdc\nfps=50Hz  fsw=50kHz  Tj=100degC
TEXT 1000 416 Left 2 !.options\n+Thev_Induc=0\n+method=modtrap\n+solver=alt\n+Reltol=0.005\n+TrTol=20
TEXT 1200 600 Left 2 !.meas tran Pin AVG V(AC_IN)*I(V1) FROM 10m TO 20m\n.meas tran Iin_rms RMS I(L1) FROM 10m TO 20m\n.meas tran Iin_pk MAX abs(I(L1)) FROM 10m TO 20m\n.meas tran Vout_avg AVG V(OUT) FROM 10m TO 20m\n.meas tran Vout_pp PP V(OUT) FROM 10m TO 20m
TEXT 1200 744 Left 2 !.meas tran Vin_src_rms RMS V(AC_IN) FROM 10m TO 20m
